   23
Geometry Step: 160
    C     -3.10214528     -0.31340290      0.43712403      4.16951349
    C     -3.13153131     -1.70523163      0.39018713      4.05817429
    C     -1.93914133     -2.43176239      0.32382300      4.11593541
    C     -0.71665915     -1.76038899      0.31730207      4.07194766
    C     -0.64955251     -0.35806809      0.38737771      4.09097385
    C     -1.87079968      0.36391345      0.43167291      3.69648167
    O     -1.88999214      1.71770760      0.42891604      6.42216289
    C      0.67740442      0.32376582      0.40289502      3.95759786
    C      1.68491341     -0.06514062     -0.49830868      4.09225262
    C      2.93094824      0.55911480     -0.48957301      4.06489923
    C      3.20005768      1.58126572      0.42266745      4.07780289
    C      2.21631686      1.96717779      1.33419432      4.06633055
    C      0.96711446      1.34620696      1.32656302      4.11606649
    H     -4.02385380      0.26126931      0.47249666      0.91177386
    H     -4.08676375     -2.22658961      0.39676551      0.92879230
    H     -1.96187709     -3.51795611      0.28133086      0.92632756
    H      0.20990105     -2.33074833      0.27903497      0.92740034
    H     -0.98903111      2.06784330      0.34267994      0.66921085
    H      1.48197501     -0.85570561     -1.21839316      0.92468770
    H      3.69542137      0.24871067     -1.19919618      0.92850547
    H      4.17247798      2.06902009      0.42808549      0.92757470
    H      2.42341980      2.75116944      2.06008658      0.92837907
    H      0.22319688      1.63432934      2.06776834      0.92720926
